Version 4
SHEET 1 1876 1032
WIRE 1120 16 976 16
WIRE 1360 16 1248 16
WIRE 1552 16 1488 16
WIRE 320 96 320 32
WIRE 256 144 192 144
WIRE 480 144 384 144
WIRE 784 144 480 144
WIRE 976 176 976 16
WIRE 976 176 928 176
WIRE 1024 176 976 176
WIRE 1232 176 1152 176
WIRE 1440 176 1360 176
WIRE 784 208 752 208
WIRE 320 272 320 192
WIRE 1440 288 1440 176
WIRE 1440 288 704 288
WIRE 752 352 752 208
WIRE 1440 352 752 352
WIRE 704 448 704 288
WIRE 784 448 704 448
WIRE 976 480 928 480
WIRE 1024 480 976 480
WIRE 1232 480 1152 480
WIRE 1440 480 1440 352
WIRE 1440 480 1360 480
WIRE 480 512 480 144
WIRE 544 512 480 512
WIRE 784 512 672 512
WIRE 976 640 976 480
WIRE 1136 640 976 640
WIRE 1360 640 1264 640
WIRE 1536 640 1488 640
FLAG 608 464 +VDD
FLAG 608 560 -VSS
FLAG 864 128 +VDD
FLAG 864 432 +VDD
FLAG 864 224 -VSS
FLAG 864 528 -VSS
FLAG 1088 128 +VDD
FLAG 1088 224 -VSS
FLAG 1296 128 +VDD
FLAG 1296 224 -VSS
FLAG 1088 432 +VDD
FLAG 1088 528 -VSS
FLAG 1296 432 +VDD
FLAG 1296 528 -VSS
FLAG 1552 16 CK1
IOPIN 1552 16 Out
FLAG 1536 640 CK2
IOPIN 1536 640 Out
FLAG 1184 -32 +VDD
FLAG 1184 64 -VSS
FLAG 1200 592 +VDD
FLAG 1200 688 -VSS
FLAG 1424 -32 +VDD
FLAG 1424 64 -VSS
FLAG 1424 592 +VDD
FLAG 1424 688 -VSS
FLAG 192 144 CKINPUT
IOPIN 192 144 In
FLAG 320 32 +VDD
IOPIN 320 32 BiDir
FLAG 320 272 -VSS
IOPIN 320 272 BiDir
SYMBOL PMOS-INV 304 144 R0
SYMATTR InstName X1
SYMBOL PMOS-INV 592 512 R0
SYMATTR InstName X2
SYMBOL PMOS-NOR 848 176 R0
SYMATTR InstName X3
SYMBOL PMOS-NOR 848 480 R0
SYMATTR InstName X4
SYMBOL PMOS-INV 1072 176 R0
SYMATTR InstName X6
SYMBOL PMOS-INV 1280 176 R0
SYMATTR InstName X7
SYMBOL PMOS-INV 1072 480 R0
SYMATTR InstName X8
SYMBOL PMOS-INV 1280 480 R0
SYMATTR InstName X9
SYMBOL PMOS-INV 1168 16 R0
SYMATTR InstName X10
SYMBOL PMOS-INV 1184 640 R0
SYMATTR InstName X11
SYMBOL PMOS-INV 1408 16 R0
SYMATTR InstName X12
SYMBOL PMOS-INV 1408 640 R0
SYMATTR InstName X13
TEXT 88 320 Left 2 !.tran 0 100u 0
TEXT 376 8 Left 2 !.lib ./mineda2020_1_pmos(Aug18).txt
