Version 4
SHEET 1 2296 2968
WIRE 576 -976 464 -976
WIRE 704 -976 672 -976
WIRE 736 -976 704 -976
WIRE 1536 -976 832 -976
WIRE -48 -816 -48 -832
WIRE -48 -816 -144 -816
WIRE -144 -800 -144 -816
WIRE -48 -800 -48 -816
WIRE -144 -784 -144 -800
WIRE 1200 -784 1168 -784
WIRE 1328 -784 1296 -784
WIRE 1360 -784 1328 -784
WIRE 1504 -784 1456 -784
WIRE -144 -704 -144 -720
WIRE -48 -704 -48 -720
WIRE -48 -704 -144 -704
WIRE -48 -672 -48 -704
WIRE 144 -672 80 -672
WIRE 272 -672 240 -672
WIRE 304 -672 272 -672
WIRE 464 -672 464 -976
WIRE 464 -672 400 -672
WIRE 576 -672 464 -672
WIRE 784 -672 640 -672
WIRE 848 -672 784 -672
WIRE 976 -672 944 -672
WIRE 1008 -672 976 -672
WIRE 1168 -672 1168 -784
WIRE 1168 -672 1104 -672
WIRE 1296 -672 1168 -672
WIRE 1504 -672 1504 -784
WIRE 1504 -672 1360 -672
WIRE -272 -656 -272 -704
WIRE -48 -576 -96 -576
WIRE 80 -576 80 -672
WIRE 80 -576 32 -576
WIRE 464 -528 464 -672
WIRE 496 -528 464 -528
WIRE 784 -528 784 -672
WIRE 784 -528 736 -528
WIRE 1168 -528 1168 -672
WIRE 1200 -528 1168 -528
WIRE 1504 -528 1504 -672
WIRE 1504 -528 1440 -528
WIRE 1568 -528 1504 -528
WIRE 1600 -528 1568 -528
WIRE 80 -512 80 -576
WIRE -272 -480 -272 -576
WIRE -208 -480 -272 -480
WIRE 496 -432 464 -432
WIRE 784 -432 736 -432
WIRE 1200 -432 1168 -432
WIRE 1504 -432 1440 -432
WIRE 1536 -432 1536 -976
WIRE 1536 -432 1504 -432
WIRE 1600 -432 1536 -432
WIRE -208 -416 -208 -480
WIRE -272 -384 -272 -480
WIRE -96 -384 -96 -576
WIRE -48 -384 -96 -384
WIRE 80 -384 80 -432
WIRE 80 -384 32 -384
WIRE 576 -384 576 -400
WIRE 592 -384 576 -384
WIRE 1280 -384 1280 -400
WIRE 1296 -384 1280 -384
WIRE 528 -352 528 -400
WIRE 592 -352 592 -384
WIRE 1232 -352 1232 -400
WIRE 1296 -352 1296 -384
WIRE -96 -336 -96 -384
WIRE 80 -288 80 -384
WIRE 160 -288 80 -288
WIRE 288 -288 256 -288
WIRE 320 -288 288 -288
WIRE 464 -288 464 -432
WIRE 464 -288 416 -288
WIRE 576 -288 464 -288
WIRE 784 -288 784 -432
WIRE 784 -288 640 -288
WIRE 848 -288 784 -288
WIRE 976 -288 944 -288
WIRE 1008 -288 976 -288
WIRE 1168 -288 1168 -432
WIRE 1168 -288 1104 -288
WIRE 1296 -288 1168 -288
WIRE 1504 -288 1504 -432
WIRE 1504 -288 1360 -288
WIRE -272 -272 -272 -304
WIRE -608 -240 -608 -288
WIRE -432 -240 -432 -288
WIRE -96 -224 -96 -256
WIRE 1168 -192 1168 -288
WIRE 1200 -192 1168 -192
WIRE 1328 -192 1296 -192
WIRE 1360 -192 1328 -192
WIRE 1504 -192 1504 -288
WIRE 1504 -192 1456 -192
WIRE -608 -128 -608 -160
WIRE -432 -128 -432 -160
WIRE 464 0 464 -288
WIRE 560 0 464 0
WIRE 688 0 656 0
WIRE 720 0 688 0
WIRE 1568 0 1568 -528
WIRE 1568 0 816 0
FLAG -48 -672 0
FLAG -208 -416 0
FLAG -272 -704 +VDD
IOPIN -272 -704 Out
FLAG -272 -272 -VSS
IOPIN -272 -272 Out
FLAG -48 -832 Iref
IOPIN -48 -832 Out
FLAG 640 -560 +VDD
FLAG 640 -400 -VSS
FLAG 560 -560 Iref
FLAG 1344 -560 +VDD
FLAG 1344 -400 -VSS
FLAG 1264 -560 Iref
FLAG -96 -224 0
FLAG 1600 -528 OUT2+
IOPIN 1600 -528 Out
FLAG 1600 -432 OUT2-
IOPIN 1600 -432 Out
FLAG -608 -128 0
FLAG -432 -128 0
FLAG -608 -288 CK1
FLAG -432 -288 CK2
FLAG 688 64 0
FLAG 608 0 +VDD
FLAG 768 0 +VDD
FLAG 576 -48 CK2
FLAG 736 -48 CK1
FLAG 288 -224 0
FLAG 208 -288 +VDD
FLAG 368 -288 +VDD
FLAG 176 -336 CK1
FLAG 336 -336 CK2
FLAG 976 -736 0
FLAG 1056 -672 +VDD
FLAG 896 -672 +VDD
FLAG 1088 -624 CK1
FLAG 928 -624 CK2
FLAG 976 -224 0
FLAG 896 -288 +VDD
FLAG 1056 -288 +VDD
FLAG 864 -336 CK2
FLAG 1024 -336 CK1
FLAG 1328 -848 0
FLAG 1408 -784 +VDD
FLAG 1248 -784 +VDD
FLAG 1440 -736 CK2
FLAG 1280 -736 CK1
FLAG 1328 -128 0
FLAG 1248 -192 +VDD
FLAG 1408 -192 +VDD
FLAG 1216 -240 CK1
FLAG 1376 -240 CK2
FLAG 704 -1040 0
FLAG 784 -976 +VDD
FLAG 624 -976 +VDD
FLAG 816 -928 CK1
FLAG 656 -928 CK2
FLAG 272 -736 0
FLAG 352 -672 +VDD
FLAG 192 -672 +VDD
FLAG 384 -624 CK2
FLAG 224 -624 CK1
FLAG 784 -528 OUT1+
IOPIN 784 -528 Out
FLAG 784 -432 OUT1-
IOPIN 784 -432 Out
FLAG 80 -672 IN+
IOPIN 80 -672 Out
FLAG 80 -288 IN-
IOPIN 80 -288 Out
SYMBOL current -48 -800 R0
WINDOW 123 0 0 Left 2
WINDOW 39 0 0 Left 2
SYMATTR InstName Iref
SYMATTR Value 208µ
SYMBOL voltage 80 -528 R0
WINDOW 123 -94 90 Left 2
WINDOW 39 0 0 Left 2
WINDOW 3 -50 22 Left 2
WINDOW 0 -115 57 Left 2
SYMATTR Value2 AC 1
SYMATTR Value SIN 0 5 1k
SYMATTR InstName Vin-diff
SYMBOL voltage -272 -400 R0
WINDOW 123 24 44 Left 2
WINDOW 39 0 0 Left 2
SYMATTR InstName V2
SYMATTR Value 5
SYMBOL voltage -272 -672 R0
WINDOW 123 24 44 Left 2
WINDOW 39 0 0 Left 2
SYMATTR InstName V4
SYMATTR Value 5
SYMBOL voltage -96 -352 R0
WINDOW 123 24 44 Left 2
WINDOW 39 0 0 Left 2
WINDOW 3 24 72 Left 2
SYMATTR Value2 AC 0
SYMATTR Value 0
SYMATTR InstName Vin-cm
SYMBOL cap 592 -368 R90
WINDOW 0 0 32 VBottom 2
WINDOW 3 32 32 VTop 2
SYMATTR InstName C3
SYMATTR Value 24p
SYMBOL DiffAmp 560 -480 R0
SYMATTR InstName X1
SYMBOL cap 1296 -368 R90
WINDOW 0 0 32 VBottom 2
WINDOW 3 32 32 VTop 2
SYMATTR InstName C1
SYMATTR Value 24p
SYMBOL DiffAmp 1264 -480 R0
SYMATTR InstName X2
SYMBOL cap 640 -688 R90
WINDOW 0 0 32 VBottom 2
WINDOW 3 32 32 VTop 2
SYMATTR InstName C2
SYMATTR Value 159.15p
SYMBOL cap 640 -304 R90
WINDOW 0 0 32 VBottom 2
WINDOW 3 32 32 VTop 2
SYMATTR InstName C4
SYMATTR Value 159.15p
SYMBOL cap 1360 -688 R90
WINDOW 0 0 32 VBottom 2
WINDOW 3 32 32 VTop 2
SYMATTR InstName C5
SYMATTR Value 159.15p
SYMBOL cap 1360 -304 R90
WINDOW 0 0 32 VBottom 2
WINDOW 3 32 32 VTop 2
SYMATTR InstName C6
SYMATTR Value 159.15p
SYMBOL res 48 -592 R90
WINDOW 0 0 56 VBottom 2
WINDOW 3 32 56 VTop 2
SYMATTR InstName R9
SYMATTR Value 1
SYMBOL res 48 -400 R90
WINDOW 0 0 56 VBottom 2
WINDOW 3 32 56 VTop 2
SYMATTR InstName R10
SYMATTR Value 1
SYMBOL current -144 -800 R0
WINDOW 123 0 0 Left 2
WINDOW 39 0 0 Left 2
SYMATTR InstName Iref1
SYMATTR Value 208µ
SYMBOL voltage -608 -256 R0
WINDOW 123 24 44 Left 2
WINDOW 39 0 0 Left 2
WINDOW 3 -54 168 VLeft 2
SYMATTR Value2 AC 0
SYMATTR Value PULSE(5 -5 0.5u 0.5u 0.5uu 4u 10u)
SYMATTR InstName Vin2
SYMBOL voltage -432 -256 R0
WINDOW 123 24 44 Left 2
WINDOW 39 0 0 Left 2
WINDOW 3 -52 159 VLeft 2
SYMATTR Value2 AC 0
SYMATTR Value PULSE(-5 5 0 0.5u 0.5u 5u 10u)
SYMATTR InstName Vin3
SYMBOL pmos4 656 -48 R90
SYMATTR InstName M3
SYMATTR Value YSS_PMOS
SYMATTR Value2 l=14u w=14u
SYMBOL pmos4 816 -48 R90
SYMATTR InstName M4
SYMATTR Value YSS_PMOS
SYMATTR Value2 l=14u w=14u
SYMBOL cap 672 0 R0
SYMATTR InstName C9
SYMATTR Value 100p
SYMBOL pmos4 256 -336 R90
SYMATTR InstName M5
SYMATTR Value YSS_PMOS
SYMATTR Value2 l=14u w=14u
SYMBOL pmos4 416 -336 R90
SYMATTR InstName M6
SYMATTR Value YSS_PMOS
SYMATTR Value2 l=14u w=14u
SYMBOL cap 272 -288 R0
SYMATTR InstName C10
SYMATTR Value 100p
SYMBOL pmos4 1008 -624 R270
SYMATTR InstName M7
SYMATTR Value YSS_PMOS
SYMATTR Value2 l=14u w=14u
SYMBOL pmos4 848 -624 R270
SYMATTR InstName M8
SYMATTR Value YSS_PMOS
SYMATTR Value2 l=14u w=14u
SYMBOL cap 992 -672 R180
WINDOW 0 24 56 Left 2
WINDOW 3 24 8 Left 2
SYMATTR InstName C11
SYMATTR Value 100p
SYMBOL pmos4 944 -336 R90
SYMATTR InstName M9
SYMATTR Value YSS_PMOS
SYMATTR Value2 l=14u w=14u
SYMBOL pmos4 1104 -336 R90
SYMATTR InstName M10
SYMATTR Value YSS_PMOS
SYMATTR Value2 l=14u w=14u
SYMBOL cap 960 -288 R0
SYMATTR InstName C12
SYMATTR Value 100p
SYMBOL pmos4 1360 -736 R270
WINDOW 3 57 111 Left 2
SYMATTR Value YSS_PMOS
SYMATTR InstName M11
SYMATTR Value2 l=14u w=14u
SYMBOL pmos4 1200 -736 R270
WINDOW 3 62 -8 Left 2
SYMATTR Value YSS_PMOS
SYMATTR InstName M12
SYMATTR Value2 l=14u w=14u
SYMBOL cap 1344 -784 R180
WINDOW 0 24 56 Left 2
WINDOW 3 24 8 Left 2
SYMATTR InstName C13
SYMATTR Value 141.4p
SYMBOL pmos4 1296 -240 R90
WINDOW 3 59 112 Left 2
SYMATTR Value YSS_PMOS
SYMATTR InstName M13
SYMATTR Value2 l=14u w=14u
SYMBOL pmos4 1456 -240 R90
WINDOW 3 57 -37 Left 2
SYMATTR Value YSS_PMOS
SYMATTR InstName M14
SYMATTR Value2 l=14u w=14u
SYMBOL cap 1312 -192 R0
SYMATTR InstName C14
SYMATTR Value 141.4p
SYMBOL pmos4 736 -928 R270
SYMATTR InstName M15
SYMATTR Value YSS_PMOS
SYMATTR Value2 l=14u w=14u
SYMBOL pmos4 576 -928 R270
SYMATTR InstName M16
SYMATTR Value YSS_PMOS
SYMATTR Value2 l=14u w=14u
SYMBOL cap 720 -976 R180
WINDOW 0 24 56 Left 2
WINDOW 3 24 8 Left 2
SYMATTR InstName C15
SYMATTR Value 100p
SYMBOL pmos4 304 -624 R270
SYMATTR InstName M17
SYMATTR Value YSS_PMOS
SYMATTR Value2 l=14u w=14u
SYMBOL pmos4 144 -624 R270
SYMATTR InstName M18
SYMATTR Value YSS_PMOS
SYMATTR Value2 l=14u w=14u
SYMBOL cap 288 -672 R180
WINDOW 0 24 56 Left 2
WINDOW 3 24 8 Left 2
SYMATTR InstName C16
SYMATTR Value 100p
TEXT -328 -40 Left 2 !;dc Iref 200u 220u
TEXT -328 8 Left 2 !.lib ../parameter2/mineda2020_1_pmos(Aug18).txt
TEXT -336 -80 Left 2 !;op
TEXT -336 -128 Left 2 !;ac dec 100 1 1meg
TEXT -240 -80 Left 2 !.tran 0 2m 1m
TEXT -544 -1120 Left 4 ;Compensation capacitor has been increased to 74pF, in total.
TEXT -496 -1080 Left 2 ;Don't forget to give 208uA of Iref for each DiffAmp, or you will get a large common-mode offset!
TEXT -536 -960 Left 4 ;Designed directly by formula C=T/R. T=1/100kHz.
TEXT -512 -912 Left 2 ;Switches are all 14u/14u.
