Version 4
SHEET 1 2296 2968
WIRE -48 -816 -48 -832
WIRE -48 -816 -144 -816
WIRE 400 -816 -48 -816
WIRE -144 -800 -144 -816
WIRE -48 -800 -48 -816
WIRE -144 -784 -144 -800
WIRE -144 -704 -144 -720
WIRE -48 -704 -48 -720
WIRE -48 -704 -144 -704
WIRE -48 -672 -48 -704
WIRE 144 -672 80 -672
WIRE -272 -656 -272 -704
WIRE 640 -656 640 -688
WIRE 400 -592 400 -816
WIRE 496 -592 496 -624
WIRE -48 -576 -96 -576
WIRE 80 -576 80 -672
WIRE 80 -576 32 -576
WIRE 272 -576 80 -576
WIRE 272 -544 272 -576
WIRE 336 -544 272 -544
WIRE 640 -544 640 -576
WIRE 640 -544 560 -544
WIRE 672 -544 640 -544
WIRE 80 -512 80 -576
WIRE -272 -480 -272 -576
WIRE -208 -480 -272 -480
WIRE 336 -448 272 -448
WIRE 640 -448 560 -448
WIRE 672 -448 640 -448
WIRE -208 -416 -208 -480
WIRE 640 -416 640 -448
WIRE -272 -384 -272 -480
WIRE -96 -384 -96 -576
WIRE -48 -384 -96 -384
WIRE 80 -384 80 -432
WIRE 80 -384 32 -384
WIRE 272 -384 272 -448
WIRE 272 -384 80 -384
WIRE 496 -368 496 -400
WIRE -96 -336 -96 -384
WIRE 640 -304 640 -336
WIRE 80 -288 80 -384
WIRE 160 -288 80 -288
WIRE -272 -272 -272 -304
WIRE 400 -240 400 -400
WIRE 448 -240 400 -240
WIRE -96 -224 -96 -256
WIRE 400 -176 400 -240
WIRE 400 -64 400 -96
FLAG -48 -672 0
FLAG -208 -416 0
FLAG -272 -704 +VDD
IOPIN -272 -704 Out
FLAG -272 -272 -VSS
IOPIN -272 -272 Out
FLAG -48 -832 Iref
IOPIN -48 -832 Out
FLAG -96 -224 0
FLAG 400 -64 0
FLAG 144 -672 IN+
IOPIN 144 -672 Out
FLAG 160 -288 IN-
IOPIN 160 -288 Out
FLAG 448 -240 CKINPUT
IOPIN 448 -240 Out
FLAG 496 -624 +VDD
IOPIN 496 -624 Out
FLAG 496 -368 -VSS
IOPIN 496 -368 Out
FLAG 640 -304 0
FLAG 640 -688 0
FLAG 672 -544 OUT+
IOPIN 672 -544 Out
FLAG 672 -448 OUT-
IOPIN 672 -448 Out
SYMBOL current -48 -800 R0
WINDOW 123 0 0 Left 2
WINDOW 39 0 0 Left 2
SYMATTR InstName Iref
SYMATTR Value 208u
SYMBOL voltage 80 -528 R0
WINDOW 123 -94 90 Left 2
WINDOW 39 0 0 Left 2
WINDOW 3 -50 22 Left 2
WINDOW 0 -115 57 Left 2
SYMATTR Value2 AC 1
SYMATTR Value SINE(0 5 0.5k)
SYMATTR InstName Vin-diff
SYMBOL voltage -272 -400 R0
WINDOW 123 24 44 Left 2
WINDOW 39 0 0 Left 2
SYMATTR InstName V2
SYMATTR Value 5
SYMBOL voltage -272 -672 R0
WINDOW 123 24 44 Left 2
WINDOW 39 0 0 Left 2
SYMATTR InstName V4
SYMATTR Value 5
SYMBOL voltage -96 -352 R0
WINDOW 123 24 44 Left 2
WINDOW 39 0 0 Left 2
WINDOW 3 24 72 Left 2
SYMATTR Value2 AC 0
SYMATTR Value 0
SYMATTR InstName Vin-cm
SYMBOL res 48 -592 R90
WINDOW 0 0 56 VBottom 2
WINDOW 3 32 56 VTop 2
SYMATTR InstName R9
SYMATTR Value 1
SYMBOL res 48 -400 R90
WINDOW 0 0 56 VBottom 2
WINDOW 3 32 56 VTop 2
SYMATTR InstName R10
SYMATTR Value 1
SYMBOL current -144 -800 R0
WINDOW 123 0 0 Left 2
WINDOW 39 0 0 Left 2
SYMATTR InstName Iref1
SYMATTR Value 208u
SYMBOL voltage 400 -192 R0
WINDOW 123 24 44 Left 2
WINDOW 39 0 0 Left 2
WINDOW 3 -54 168 VLeft 2
SYMATTR Value2 AC 0
SYMATTR Value PULSE(5 -5 0 0 0 5u 10u)
SYMATTR InstName Vin2
SYMBOL res 624 -672 R0
SYMATTR InstName R1
SYMATTR Value 100k
SYMBOL res 624 -432 R0
SYMATTR InstName R2
SYMATTR Value 100k
SYMBOL SCF-Biquad-Final_symbol 448 -496 R0
SYMATTR InstName X2
TEXT -328 -40 Left 2 !;dc Iref 200u 220u
TEXT -328 8 Left 2 !.lib .\\mineda2020_1_pmos(Aug18).txt
TEXT -336 -80 Left 2 !;op
TEXT -336 -128 Left 2 !;ac dec 100 1 1meg
TEXT -240 -80 Left 2 !.tran 0 5.5m 0.5m
TEXT -544 -1120 Left 4 ;Compensation capacitor has been increased to 74pF, in total.
TEXT -496 -1080 Left 2 ;Don't forget to give 208uA of Iref for each DiffAmp, or you will get a large common-mode offset!
TEXT -536 -960 Left 4 ;Designed directly by formula C=T/R. T=1/100kHz.
TEXT -512 -912 Left 2 ;Switches are all 14u/14u.
